** SRCSTATUS: PACKAGE=Production,RUN_MODE=Flat,ERROR_COUNT=0,WARNING_COUNT=2,WAIVERS_COUNT=0,USERID=cvphan,DATE_RUN=Aug 25 13:30:30 2014,SETUP_VER=DTS_14ww29 3,SRC_VER=p14ww33,SIM_VER=p1274 0_14ww31 5,COLL_VER=p1274 0_14ww32 2
** SRCWAIVERS: NONE
** generated for: hspiceD
** generated on: Sep  3 15:05:52 2014
** design library name: ip10xddrdll_ihdk_sch
** design cell name: ip10xddrdll_mcdll10pi
** design view name: schematic
.global vss

************** Start Of Includes ******************
*******************************************************
* /p/hdk/cad/process/p1274.0_sim/p1274.0_14ww35.2/erc/erc_global_corners_file.hsp:tttt
*******************************************************
 
 
************** End Of Includes ******************
** library name: ec0basic
** cell name: ec0nand02al1n06x5
** view name: schematic
.subckt ec0nand02al1n06x5 a b o1 vcc
* ----------------------------
* CELLLOG ec0basic nil ec0nand02al1n06x5 schematic Unmanaged /nfs/site/disks/hdk.stdroot.2/stdcells/ec0/14ww24.2_ec0_prj_alpham1.v1/schematic/ec0basic/ec0nand02al1n06x5/schematic 
* CELLLOG ec0basic nil ec0nand02al1n06x5 symbol Unmanaged /nfs/site/disks/hdk.stdroot.2/stdcells/ec0/14ww24.2_ec0_prj_alpham1.v1/schematic/ec0basic/ec0nand02al1n06x5/symbol 
* TAG: schematic 
* COUNTER: 43393 
* Version: Unmanaged 
* INPUT:  a  b  vcc 
* OUTPUT:  o1 
* ----------------------------
*.PININFO  a:I  b:I  vcc:I 
*.PININFO  o1:O 
* ----------------------------

mqp2 o1 b vcc vcc psvt l=20e-9 w=204e-9 m=1
mqp1 o1 a vcc vcc psvt l=20e-9 w=204e-9 m=1
mqn2 n1 b vss vss nsvt l=20e-9 w=204e-9 m=1
mqn1 o1 a n1 vss nsvt l=20e-9 w=204e-9 m=1
.ends ec0nand02al1n06x5
** end of subcircuit definition.

** library name: ec0basic
** cell name: ec0nand02al1n02x5
** view name: schematic
.subckt ec0nand02al1n02x5 a b o1 vcc
* ----------------------------
* CELLLOG ec0basic nil ec0nand02al1n02x5 schematic Unmanaged /nfs/site/disks/hdk.stdroot.2/stdcells/ec0/14ww24.2_ec0_prj_alpham1.v1/schematic/ec0basic/ec0nand02al1n02x5/schematic 
* CELLLOG ec0basic nil ec0nand02al1n02x5 symbol Unmanaged /nfs/site/disks/hdk.stdroot.2/stdcells/ec0/14ww24.2_ec0_prj_alpham1.v1/schematic/ec0basic/ec0nand02al1n02x5/symbol 
* TAG: schematic 
* COUNTER: 48325 
* Version: Unmanaged 
* INPUT:  a  b  vcc 
* OUTPUT:  o1 
* ----------------------------
*.PININFO  a:I  b:I  vcc:I 
*.PININFO  o1:O 
* ----------------------------

mqp2 o1 b vcc vcc psvt l=20e-9 w=68e-9 m=1
mqp1 o1 a vcc vcc psvt l=20e-9 w=68e-9 m=1
mqn2 n1 b vss vss nsvt l=20e-9 w=68e-9 m=1
mqn1 o1 a n1 vss nsvt l=20e-9 w=68e-9 m=1
.ends ec0nand02al1n02x5
** end of subcircuit definition.

** library name: ec0basic
** cell name: ec0inv000al1n02x5
** view name: schematic
.subckt ec0inv000al1n02x5 a o1 vcc
* ----------------------------
* CELLLOG ec0basic nil ec0inv000al1n02x5 schematic Unmanaged /nfs/site/disks/hdk.stdroot.2/stdcells/ec0/14ww24.2_ec0_prj_alpham1.v1/schematic/ec0basic/ec0inv000al1n02x5/schematic 
* CELLLOG ec0basic nil ec0inv000al1n02x5 symbol Unmanaged /nfs/site/disks/hdk.stdroot.2/stdcells/ec0/14ww24.2_ec0_prj_alpham1.v1/schematic/ec0basic/ec0inv000al1n02x5/symbol 
* TAG: schematic 
* COUNTER: 31331 
* Version: Unmanaged 
* INPUT:  a  vcc 
* OUTPUT:  o1 
* ----------------------------
*.PININFO  a:I  vcc:I 
*.PININFO  o1:O 
* ----------------------------

mqp1 o1 a vcc vcc psvt l=20e-9 w=68e-9 m=1
mqn1 o1 a vss vss nsvt l=20e-9 w=68e-9 m=1
.ends ec0inv000al1n02x5
** end of subcircuit definition.

** library name: ec0basic
** cell name: ec0nand02al1n03x5
** view name: schematic
.subckt ec0nand02al1n03x5 a b o1 vcc
* ----------------------------
* CELLLOG ec0basic nil ec0nand02al1n03x5 schematic Unmanaged /nfs/site/disks/hdk.stdroot.2/stdcells/ec0/14ww24.2_ec0_prj_alpham1.v1/schematic/ec0basic/ec0nand02al1n03x5/schematic 
* CELLLOG ec0basic nil ec0nand02al1n03x5 symbol Unmanaged /nfs/site/disks/hdk.stdroot.2/stdcells/ec0/14ww24.2_ec0_prj_alpham1.v1/schematic/ec0basic/ec0nand02al1n03x5/symbol 
* TAG: schematic 
* COUNTER: 43375 
* Version: Unmanaged 
* INPUT:  a  b  vcc 
* OUTPUT:  o1 
* ----------------------------
*.PININFO  a:I  b:I  vcc:I 
*.PININFO  o1:O 
* ----------------------------

mqp2 o1 b vcc vcc psvt l=20e-9 w=68e-9 m=1
mqp1 o1 a vcc vcc psvt l=20e-9 w=68e-9 m=1
mqn2 n1 b vss vss nsvt l=20e-9 w=102e-9 m=1
mqn1 o1 a n1 vss nsvt l=20e-9 w=102e-9 m=1
.ends ec0nand02al1n03x5
** end of subcircuit definition.

** library name: ip10xddrdll_ihdk_sch
** cell name: ip10xddrdll_mcmpideccell
** view name: schematic
.subckt ip10xddrdll_mcmpideccell banksel mxlsb prevsel sel0 sel1 vccxx
* ----------------------------
* CELLLOG ip10xddrdll_ihdk_sch nil ip10xddrdll_mcmpideccell schematic 1.5 /nfs/site/disks/ihdk.db.001/sch/ip10xddrdll/P_ihdk_ADR1/ip10xddrdll_ihdk_sch/ip10xddrdll_mcmpideccell/schematic 
* CELLLOG ip10xddrdll_ihdk_sch nil ip10xddrdll_mcmpideccell symbol 1.2 /nfs/site/disks/ihdk.db.001/sch/ip10xddrdll/P_ihdk_ADR1/ip10xddrdll_ihdk_sch/ip10xddrdll_mcmpideccell/symbol 
* TAG: P_ihdk_ADR1 
* COUNTER: 12587 
* Version: 1.2 
* INPUT:  mxlsb  prevsel  vccxx 
*+ banksel 
* OUTPUT:  sel1  sel0 
* ----------------------------
*.PININFO  mxlsb:I  prevsel:I  vccxx:I 
*.PININFO  banksel:I 
*.PININFO  sel1:O  sel0:O 
* ----------------------------

xnand2 prop0_b sel0_b sel0 vccxx ec0nand02al1n06x5
xnand4 sel0_b sel1_b sel1 vccxx ec0nand02al1n06x5
xnand0 prevsel mxlsb prop0_b vccxx ec0nand02al1n02x5
xnand3 banksel mxlsb sel1_b vccxx ec0nand02al1n02x5
xinv0 mxlsb lsb_b vccxx ec0inv000al1n02x5
xnand1 banksel lsb_b sel0_b vccxx ec0nand02al1n03x5
.ends ip10xddrdll_mcmpideccell
** end of subcircuit definition.

** library name: ip10xddrdll_ihdk_sch
** cell name: ip10xddrdll_mcmdecdrv
** view name: schematic
.subckt ip10xddrdll_mcmdecdrv mx0banksel mx0lsb mx0prevsel mx0sel[0] mx0sel[1] mx1banksel mx1lsb mx1prevsel mx1sel[0] mx1sel[1] mx2banksel mx2lsb mx2prevsel mx2sel[0] mx2sel[1] mx3banksel mx3lsb mx3prevsel mx3sel[0] mx3sel[1] mxd0banksel mxd0lsb mxd0prevsel mxd0sel[0] mxd0sel[1] vccxx
* ----------------------------
* CELLLOG ip10xddrdll_ihdk_sch nil ip10xddrdll_mcmdecdrv schematic 1.5 /nfs/site/disks/ihdk.db.001/sch/ip10xddrdll/P_ihdk_ADR1/ip10xddrdll_ihdk_sch/ip10xddrdll_mcmdecdrv/schematic 
* CELLLOG ip10xddrdll_ihdk_sch nil ip10xddrdll_mcmdecdrv symbol 1.3 /nfs/site/disks/ihdk.db.001/sch/ip10xddrdll/P_ihdk_ADR1/ip10xddrdll_ihdk_sch/ip10xddrdll_mcmdecdrv/symbol 
* TAG: P_ihdk_ADR1 
* COUNTER: 17494 
* Version: 1.3 
* INPUT:  mx0banksel  mx3prevsel  mx1banksel 
*+ mx3lsb  mx3banksel  vccxx  mx2lsb 
*+ mx1prevsel  mx2banksel  mx0lsb  mx1lsb 
*+ mx0prevsel  mxd0lsb  mxd0banksel  mxd0prevsel 
*+ mx2prevsel 
* OUTPUT:  mx2sel[0]  mx1sel[0]  mx0sel[0] 
*+ mx2sel[1]  mx0sel[1]  mx3sel[1]  mx3sel[0] 
*+ mxd0sel[0]  mxd0sel[1]  mx1sel[1] 
* ----------------------------
*.PININFO  mx0banksel:I  mx3prevsel:I  mx1banksel:I 
*.PININFO  mx3lsb:I  mx3banksel:I  vccxx:I  mx2lsb:I 
*.PININFO  mx1prevsel:I  mx2banksel:I  mx0lsb:I  mx1lsb:I 
*.PININFO  mx0prevsel:I  mxd0lsb:I  mxd0banksel:I  mxd0prevsel:I 
*.PININFO  mx2prevsel:I 
*.PININFO  mx2sel[0]:O  mx1sel[0]:O  mx0sel[0]:O 
*.PININFO  mx2sel[1]:O  mx0sel[1]:O  mx3sel[1]:O  mx3sel[0]:O 
*.PININFO  mxd0sel[0]:O  mxd0sel[1]:O  mx1sel[1]:O 
* ----------------------------

xmx2drv mx2banksel mx2lsb mx2prevsel mx2sel[0] mx2sel[1] vccxx ip10xddrdll_mcmpideccell
xmx3drv mx3banksel mx3lsb mx3prevsel mx3sel[0] mx3sel[1] vccxx ip10xddrdll_mcmpideccell
xmx0drv mx0banksel mx0lsb mx0prevsel mx0sel[0] mx0sel[1] vccxx ip10xddrdll_mcmpideccell
xmx1drv mx1banksel mx1lsb mx1prevsel mx1sel[0] mx1sel[1] vccxx ip10xddrdll_mcmpideccell
ximxrefdrv mxd0banksel mxd0lsb mxd0prevsel mxd0sel[0] mxd0sel[1] vccxx ip10xddrdll_mcmpideccell
.ends ip10xddrdll_mcmdecdrv
** end of subcircuit definition.

** library name: ec0basic
** cell name: ec0inv000an1n03x5
** view name: schematic
.subckt ec0inv000an1n03x5 a o1 vcc
* ----------------------------
* CELLLOG ec0basic nil ec0inv000an1n03x5 schematic Unmanaged /nfs/site/disks/hdk.stdroot.2/stdcells/ec0/14ww24.2_ec0_prj_alpham1.v1/schematic/ec0basic/ec0inv000an1n03x5/schematic 
* CELLLOG ec0basic nil ec0inv000an1n03x5 symbol Unmanaged /nfs/site/disks/hdk.stdroot.2/stdcells/ec0/14ww24.2_ec0_prj_alpham1.v1/schematic/ec0basic/ec0inv000an1n03x5/symbol 
* TAG: schematic 
* COUNTER: 33970 
* Version: Unmanaged 
* INPUT:  a  vcc 
* OUTPUT:  o1 
* ----------------------------
*.PININFO  a:I  vcc:I 
*.PININFO  o1:O 
* ----------------------------

mqn1 o1 a vss vss n l=20e-9 w=102e-9 m=1
mqp1 o1 a vcc vcc p l=20e-9 w=102e-9 m=1
.ends ec0inv000an1n03x5
** end of subcircuit definition.

** library name: ec0basic
** cell name: ec0inv000an1n02x5
** view name: schematic
.subckt ec0inv000an1n02x5 a o1 vcc
* ----------------------------
* CELLLOG ec0basic nil ec0inv000an1n02x5 schematic Unmanaged /nfs/site/disks/hdk.stdroot.2/stdcells/ec0/14ww24.2_ec0_prj_alpham1.v1/schematic/ec0basic/ec0inv000an1n02x5/schematic 
* CELLLOG ec0basic nil ec0inv000an1n02x5 symbol Unmanaged /nfs/site/disks/hdk.stdroot.2/stdcells/ec0/14ww24.2_ec0_prj_alpham1.v1/schematic/ec0basic/ec0inv000an1n02x5/symbol 
* TAG: schematic 
* COUNTER: 34187 
* Version: Unmanaged 
* INPUT:  a  vcc 
* OUTPUT:  o1 
* ----------------------------
*.PININFO  a:I  vcc:I 
*.PININFO  o1:O 
* ----------------------------

mqn1 o1 a vss vss n l=20e-9 w=68e-9 m=1
mqp1 o1 a vcc vcc p l=20e-9 w=68e-9 m=1
.ends ec0inv000an1n02x5
** end of subcircuit definition.

** library name: e3modules
** cell name: e3ylcin00af
** view name: schematic
** end of subcircuit definition.

** library name: e9prim
** cell name: e9ytdf
** view name: schematic
** end of subcircuit definition.

** library name: e9prim
** cell name: e9yinf
** view name: schematic
** end of subcircuit definition.

** library name: e9prim
** cell name: e9yxff
** view name: schematic
** end of subcircuit definition.

** library name: e3modules
** cell name: e3ylpc000af
** view name: schematic
** end of subcircuit definition.

** library name: e3modules
** cell name: e3yino000af
** view name: schematic
** end of subcircuit definition.

** library name: ec0sequential
** cell name: ec0lsn090an1n04x3
** view name: schematic
.subckt ec0lsn090an1n04x3 clkb d o1 vcc
* ----------------------------
* CELLLOG ec0sequential nil ec0lsn090an1n04x3 schematic Unmanaged /nfs/site/disks/hdk.stdroot.2/stdcells/ec0/14ww24.2_ec0_prj_alpham1.v1/schematic/ec0sequential/ec0lsn090an1n04x3/schematic 
* CELLLOG ec0sequential nil ec0lsn090an1n04x3 symbol Unmanaged /nfs/site/disks/hdk.stdroot.2/stdcells/ec0/14ww24.2_ec0_prj_alpham1.v1/schematic/ec0sequential/ec0lsn090an1n04x3/symbol 
* TAG: schematic 
* COUNTER: 224902 
* Version: Unmanaged 
* INPUT:  d  vcc  clkb 
* OUTPUT:  o1 
* ----------------------------
*.PININFO  d:I  vcc:I  clkb:I 
*.PININFO  o1:O 
* ----------------------------

mg1.qn0 nc1 clkb vss vss n l=20e-9 w=34e-9 m=1
mg1.qp0 nc1 clkb vcc vcc p l=20e-9 w=34e-9 m=1
mg0.g3.qnd g0.g3.n2 g0.nk1 vss vss n l=20e-9 w=34e-9 m=1
mg0.g3.qnck nk2 clkb g0.g3.n2 vss n l=20e-9 w=34e-9 m=1
mg0.g3.qpd g0.g3.n1 g0.nk1 vcc vcc p l=20e-9 w=68e-9 m=1
mg0.g3.qpckb nk2 nc1 g0.g3.n1 vcc p l=20e-9 w=68e-9 m=1
mg0.g99.qna g0.nk1 nk2 vss vss n l=20e-9 w=34e-9 m=1
mg0.g99.qpa g0.nk1 nk2 vcc vcc p l=20e-9 w=68e-9 m=1
mg0.g1.qns nk2 nc1 d vss n l=20e-9 w=34e-9 m=1
mg0.g1.qpsb nk2 clkb d vcc p l=20e-9 w=68e-9 m=1
mg101.qpa o1 nk2 vcc vcc p l=20e-9 w=136e-9 m=1
mg101.qna o1 nk2 vss vss n l=20e-9 w=136e-9 m=1
.ends ec0lsn090an1n04x3
** end of subcircuit definition.

** library name: ec0basic
** cell name: ec0nand03an1n06x5
** view name: schematic
.subckt ec0nand03an1n06x5 a b c o1 vcc
* ----------------------------
* CELLLOG ec0basic nil ec0nand03an1n06x5 schematic Unmanaged /nfs/site/disks/hdk.stdroot.2/stdcells/ec0/14ww24.2_ec0_prj_alpham1.v1/schematic/ec0basic/ec0nand03an1n06x5/schematic 
* CELLLOG ec0basic nil ec0nand03an1n06x5 symbol Unmanaged /nfs/site/disks/hdk.stdroot.2/stdcells/ec0/14ww24.2_ec0_prj_alpham1.v1/schematic/ec0basic/ec0nand03an1n06x5/symbol 
* TAG: schematic 
* COUNTER: 67298 
* Version: Unmanaged 
* INPUT:  a  b  c 
*+ vcc 
* OUTPUT:  o1 
* ----------------------------
*.PININFO  a:I  b:I  c:I 
*.PININFO  vcc:I 
*.PININFO  o1:O 
* ----------------------------

mqn1 o1 a n1 vss n l=20e-9 w=204e-9 m=1
mqn2 n1 b n2 vss n l=20e-9 w=204e-9 m=1
mqn3 n2 c vss vss n l=20e-9 w=204e-9 m=1
mqp2 o1 b vcc vcc p l=20e-9 w=136e-9 m=1
mqp3 o1 c vcc vcc p l=20e-9 w=136e-9 m=1
mqp1 o1 a vcc vcc p l=20e-9 w=136e-9 m=1
.ends ec0nand03an1n06x5
** end of subcircuit definition.

** library name: ec0sequential
** cell name: ec0lsn090al1n02x5
** view name: schematic
.subckt ec0lsn090al1n02x5 clkb d o1 vcc
* ----------------------------
* CELLLOG ec0sequential nil ec0lsn090al1n02x5 schematic Unmanaged /nfs/site/disks/hdk.stdroot.2/stdcells/ec0/14ww24.2_ec0_prj_alpham1.v1/schematic/ec0sequential/ec0lsn090al1n02x5/schematic 
* CELLLOG ec0sequential nil ec0lsn090al1n02x5 symbol Unmanaged /nfs/site/disks/hdk.stdroot.2/stdcells/ec0/14ww24.2_ec0_prj_alpham1.v1/schematic/ec0sequential/ec0lsn090al1n02x5/symbol 
* TAG: schematic 
* COUNTER: 221228 
* Version: Unmanaged 
* INPUT:  d  vcc  clkb 
* OUTPUT:  o1 
* ----------------------------
*.PININFO  d:I  vcc:I  clkb:I 
*.PININFO  o1:O 
* ----------------------------

mg1.qn0 nc1 clkb vss vss n l=20e-9 w=34e-9 m=1
mg1.qp0 nc1 clkb vcc vcc p l=20e-9 w=34e-9 m=1
mg0.g3.qnd g0.g3.n2 g0.nk1 vss vss nsvt l=20e-9 w=34e-9 m=1
mg0.g3.qnck nk2 clkb g0.g3.n2 vss nsvt l=20e-9 w=34e-9 m=1
mg0.g3.qpd g0.g3.n1 g0.nk1 vcc vcc psvt l=20e-9 w=68e-9 m=1
mg0.g3.qpckb nk2 nc1 g0.g3.n1 vcc psvt l=20e-9 w=68e-9 m=1
mg0.g99.qna g0.nk1 nk2 vss vss nsvt l=20e-9 w=34e-9 m=1
mg0.g99.qpa g0.nk1 nk2 vcc vcc psvt l=20e-9 w=68e-9 m=1
mg0.g1.qns nk2 nc1 d vss nsvt l=20e-9 w=34e-9 m=1
mg0.g1.qpsb nk2 clkb d vcc psvt l=20e-9 w=68e-9 m=1
mg101.qpa o1 nk2 vcc vcc psvt l=20e-9 w=68e-9 m=1
mg101.qna o1 nk2 vss vss nsvt l=20e-9 w=68e-9 m=1
.ends ec0lsn090al1n02x5
** end of subcircuit definition.

** library name: ec0basic
** cell name: ec0inv000an1n06x5
** view name: schematic
.subckt ec0inv000an1n06x5 a o1 vcc
* ----------------------------
* CELLLOG ec0basic nil ec0inv000an1n06x5 schematic Unmanaged /nfs/site/disks/hdk.stdroot.2/stdcells/ec0/14ww24.2_ec0_prj_alpham1.v1/schematic/ec0basic/ec0inv000an1n06x5/schematic 
* CELLLOG ec0basic nil ec0inv000an1n06x5 symbol Unmanaged /nfs/site/disks/hdk.stdroot.2/stdcells/ec0/14ww24.2_ec0_prj_alpham1.v1/schematic/ec0basic/ec0inv000an1n06x5/symbol 
* TAG: schematic 
* COUNTER: 31340 
* Version: Unmanaged 
* INPUT:  a  vcc 
* OUTPUT:  o1 
* ----------------------------
*.PININFO  a:I  vcc:I 
*.PININFO  o1:O 
* ----------------------------

mqn1 o1 a vss vss n l=20e-9 w=204e-9 m=1
mqp1 o1 a vcc vcc p l=20e-9 w=204e-9 m=1
.ends ec0inv000an1n06x5
** end of subcircuit definition.

** library name: ec0basic
** cell name: ec0inv000an1n20x5
** view name: schematic
.subckt ec0inv000an1n20x5 a o1 vcc
* ----------------------------
* CELLLOG ec0basic nil ec0inv000an1n20x5 schematic Unmanaged /nfs/site/disks/hdk.stdroot.2/stdcells/ec0/14ww24.2_ec0_prj_alpham1.v1/schematic/ec0basic/ec0inv000an1n20x5/schematic 
* CELLLOG ec0basic nil ec0inv000an1n20x5 symbol Unmanaged /nfs/site/disks/hdk.stdroot.2/stdcells/ec0/14ww24.2_ec0_prj_alpham1.v1/schematic/ec0basic/ec0inv000an1n20x5/symbol 
* TAG: schematic 
* COUNTER: 33970 
* Version: Unmanaged 
* INPUT:  a  vcc 
* OUTPUT:  o1 
* ----------------------------
*.PININFO  a:I  vcc:I 
*.PININFO  o1:O 
* ----------------------------

mqn1 o1 a vss vss n l=20e-9 w=680e-9 m=1
mqp1 o1 a vcc vcc p l=20e-9 w=680e-9 m=1
.ends ec0inv000an1n20x5
** end of subcircuit definition.

** library name: ip10xddrdll_ihdk_sch
** cell name: ip10xddrdll_mcmbankdec4
** view name: schematic
.subckt ip10xddrdll_mcmbankdec4 mxbanksel[3] mxbanksel[2] mxbanksel[1] mxbanksel[0] mxlsb picode[5] picode[4] picode[3] picodeupdate pien pienout vccxx_lv
* ----------------------------
* CELLLOG ip10xddrdll_ihdk_sch nil ip10xddrdll_mcmbankdec4 schematic 1.5 /nfs/site/disks/ihdk.db.001/sch/ip10xddrdll/P_ihdk_ADR1/ip10xddrdll_ihdk_sch/ip10xddrdll_mcmbankdec4/schematic 
* CELLLOG ip10xddrdll_ihdk_sch nil ip10xddrdll_mcmbankdec4 symbol 1.3 /nfs/site/disks/ihdk.db.001/sch/ip10xddrdll/P_ihdk_ADR1/ip10xddrdll_ihdk_sch/ip10xddrdll_mcmbankdec4/symbol 
* TAG: P_ihdk_ADR1 
* COUNTER: 23185 
* Version: 1.3 
* INPUT:  vccxx_lv  picode[3]  picode[4] 
*+ picode[5]  picodeupdate  pien 
* OUTPUT:  mxlsb  pienout  mxbanksel[0] 
*+ mxbanksel[1]  mxbanksel[2]  mxbanksel[3] 
* ----------------------------
*.PININFO  vccxx_lv:I  picode[3]:I  picode[4]:I 
*.PININFO  picode[5]:I  picodeupdate:I  pien:I 
*.PININFO  mxlsb:O  pienout:O  mxbanksel[0]:O 
*.PININFO  mxbanksel[1]:O  mxbanksel[2]:O  mxbanksel[3]:O 
* ----------------------------

xi70 pien pien_b vccxx_lv ec0inv000an1n03x5
xinv16 pien_b banken vccxx_lv ec0inv000an1n03x5
xinn0 vss softhi vccxx_lv ec0inv000an1n03x5
xinv13 muxen muxdisable vccxx_lv ec0inv000an1n02x5
xinv18 muxen_b muxen vccxx_lv ec0inv000an1n02x5
xinv17 banken muxen_b vccxx_lv ec0inv000an1n02x5
xinv14 muxdisable pienout vccxx_lv ec0inv000an1n02x5
xlatch1[3] picodeupdate bnksel_b[3] mxbanksel[3] vccxx_lv ec0lsn090an1n04x3
xlatch1[2] picodeupdate bnksel_b[2] mxbanksel[2] vccxx_lv ec0lsn090an1n04x3
xlatch1[1] picodeupdate bnksel_b[1] mxbanksel[1] vccxx_lv ec0lsn090an1n04x3
xlatch1[0] picodeupdate bnksel_b[0] mxbanksel[0] vccxx_lv ec0lsn090an1n04x3
xbnknand1 picode_b[5] picode[4] softhi bnksel_b[1] vccxx_lv ec0nand03an1n06x5
xbnknand3 picode[5] picode[4] softhi bnksel_b[3] vccxx_lv ec0nand03an1n06x5
xbnknand2 picode[5] picode_b[4] softhi bnksel_b[2] vccxx_lv ec0nand03an1n06x5
xbnknand0 picode_b[5] picode_b[4] softhi bnksel_b[0] vccxx_lv ec0nand03an1n06x5
xlan0 picodeupdate picode[3] picode_b[3] vccxx_lv ec0lsn090al1n02x5
xinv11 picode[5] picode_b[5] vccxx_lv ec0inv000an1n06x5
xinv10 picode[4] picode_b[4] vccxx_lv ec0inv000an1n06x5
xinv12 picode_b[3] mxlsb vccxx_lv ec0inv000an1n20x5
.ends ip10xddrdll_mcmbankdec4
** end of subcircuit definition.

** library name: ec0basic
** cell name: ec0inv000al1n08x5
** view name: schematic
.subckt ec0inv000al1n08x5 a o1 vcc
* ----------------------------
* CELLLOG ec0basic nil ec0inv000al1n08x5 schematic Unmanaged /nfs/site/disks/hdk.stdroot.2/stdcells/ec0/14ww24.2_ec0_prj_alpham1.v1/schematic/ec0basic/ec0inv000al1n08x5/schematic 
* CELLLOG ec0basic nil ec0inv000al1n08x5 symbol Unmanaged /nfs/site/disks/hdk.stdroot.2/stdcells/ec0/14ww24.2_ec0_prj_alpham1.v1/schematic/ec0basic/ec0inv000al1n08x5/symbol 
* TAG: schematic 
* COUNTER: 31114 
* Version: Unmanaged 
* INPUT:  a  vcc 
* OUTPUT:  o1 
* ----------------------------
*.PININFO  a:I  vcc:I 
*.PININFO  o1:O 
* ----------------------------

mqp1 o1 a vcc vcc psvt l=20e-9 w=272e-9 m=1
mqn1 o1 a vss vss nsvt l=20e-9 w=272e-9 m=1
.ends ec0inv000al1n08x5
** end of subcircuit definition.

** library name: ec0sequential
** cell name: ec0lsn010al1d05x5
** view name: schematic
.subckt ec0lsn010al1d05x5 clk d o1 vcc
* ----------------------------
* CELLLOG ec0sequential nil ec0lsn010al1d05x5 schematic Unmanaged /nfs/site/disks/hdk.stdroot.2/stdcells/ec0/14ww24.2_ec0_prj_alpham1.v1/schematic/ec0sequential/ec0lsn010al1d05x5/schematic 
* CELLLOG ec0sequential nil ec0lsn010al1d05x5 symbol Unmanaged /nfs/site/disks/hdk.stdroot.2/stdcells/ec0/14ww24.2_ec0_prj_alpham1.v1/schematic/ec0sequential/ec0lsn010al1d05x5/symbol 
* TAG: schematic 
* COUNTER: 209620 
* Version: Unmanaged 
* INPUT:  clk  d  vcc 
* OUTPUT:  o1 
* ----------------------------
*.PININFO  clk:I  d:I  vcc:I 
*.PININFO  o1:O 
* ----------------------------

mg1.qn0 nc1 clk vss vss n l=20e-9 w=34e-9 m=1
mg1.qp0 nc1 clk vcc vcc p l=20e-9 w=68e-9 m=1
mg0.g3.qnd g0.g3.n2 g0.nk1 vss vss nsvt l=20e-9 w=34e-9 m=1
mg0.g3.qnck nk2 nc1 g0.g3.n2 vss nsvt l=20e-9 w=34e-9 m=1
mg0.g3.qpd g0.g3.n1 g0.nk1 vcc vcc psvt l=20e-9 w=68e-9 m=1
mg0.g3.qpckb nk2 clk g0.g3.n1 vcc psvt l=20e-9 w=68e-9 m=1
mg0.g99.qna g0.nk1 nk2 vss vss nsvt l=20e-9 w=34e-9 m=1
mg0.g99.qpa g0.nk1 nk2 vcc vcc psvt l=20e-9 w=68e-9 m=1
mg0.g1.qns nk2 clk d vss nsvt l=20e-9 w=68e-9 m=1
mg0.g1.qpsb nk2 nc1 d vcc psvt l=20e-9 w=68e-9 m=1
mg101.qpa o1 nk2 vcc vcc psvt l=20e-9 w=170e-9 m=1
mg101.qna o1 nk2 vss vss nsvt l=20e-9 w=170e-9 m=1
.ends ec0lsn010al1d05x5
** end of subcircuit definition.

** library name: ec0complex
** cell name: ec0xnr002an1n03x5
** view name: schematic
.subckt ec0xnr002an1n03x5 a b out0 vcc
* ----------------------------
* CELLLOG ec0complex nil ec0xnr002an1n03x5 schematic Unmanaged /nfs/site/disks/hdk.stdroot.2/stdcells/ec0/14ww24.2_ec0_prj_alpham1.v1/schematic/ec0complex/ec0xnr002an1n03x5/schematic 
* CELLLOG ec0complex nil ec0xnr002an1n03x5 symbol Unmanaged /nfs/site/disks/hdk.stdroot.2/stdcells/ec0/14ww24.2_ec0_prj_alpham1.v1/schematic/ec0complex/ec0xnr002an1n03x5/symbol 
* TAG: schematic 
* COUNTER: 72479 
* Version: Unmanaged 
* INPUT:  b  a  vcc 
* OUTPUT:  out0 
* ----------------------------
*.PININFO  b:I  a:I  vcc:I 
*.PININFO  out0:O 
* ----------------------------

mg4.qns out0 a n2 vss n l=20e-9 w=102e-9 m=1
mg4.qpsb out0 n3 n2 vcc p l=20e-9 w=102e-9 m=1
mg2.qns out0 n3 n1 vss n l=20e-9 w=102e-9 m=1
mg2.qpsb out0 a n1 vcc p l=20e-9 w=102e-9 m=1
mg5.qna n3 a vss vss n l=20e-9 w=68e-9 m=1
mg5.qpa n3 a vcc vcc p l=20e-9 w=68e-9 m=1
mg1.qna n1 b vss vss n l=20e-9 w=204e-9 m=1
mg1.qpa n1 b vcc vcc p l=20e-9 w=204e-9 m=1
mg3.qna n2 n1 vss vss n l=20e-9 w=136e-9 m=1
mg3.qpa n2 n1 vcc vcc p l=20e-9 w=136e-9 m=1
.ends ec0xnr002an1n03x5
** end of subcircuit definition.

** library name: ec0basic
** cell name: ec0nor002al1n02x5
** view name: schematic
.subckt ec0nor002al1n02x5 a b o1 vcc
* ----------------------------
* CELLLOG ec0basic nil ec0nor002al1n02x5 schematic Unmanaged /nfs/site/disks/hdk.stdroot.2/stdcells/ec0/14ww24.2_ec0_prj_alpham1.v1/schematic/ec0basic/ec0nor002al1n02x5/schematic 
* CELLLOG ec0basic nil ec0nor002al1n02x5 symbol Unmanaged /nfs/site/disks/hdk.stdroot.2/stdcells/ec0/14ww24.2_ec0_prj_alpham1.v1/schematic/ec0basic/ec0nor002al1n02x5/symbol 
* TAG: schematic 
* COUNTER: 42008 
* Version: Unmanaged 
* INPUT:  a  b  vcc 
* OUTPUT:  o1 
* ----------------------------
*.PININFO  a:I  b:I  vcc:I 
*.PININFO  o1:O 
* ----------------------------

mqp1 o1 a n1 vcc psvt l=20e-9 w=102e-9 m=1
mqp2 n1 b vcc vcc psvt l=20e-9 w=102e-9 m=1
mqn1 o1 a vss vss nsvt l=20e-9 w=68e-9 m=1
mqn2 o1 b vss vss nsvt l=20e-9 w=68e-9 m=1
.ends ec0nor002al1n02x5
** end of subcircuit definition.

** library name: ip10xddrdll_ihdk_sch
** cell name: ip10xddrdll_mcmthdec
** view name: schematic
.subckt ip10xddrdll_mcmthdec picode[3] picode[2] picode[1] picode[0] picodeupdate pithcode[7] pithcode[6] pithcode[5] pithcode[4] pithcode[3] pithcode[2] pithcode[1] pithcode[0] vccxx_lv
* ----------------------------
* CELLLOG ip10xddrdll_ihdk_sch nil ip10xddrdll_mcmthdec schematic 1.5 /nfs/site/disks/ihdk.db.001/sch/ip10xddrdll/P_ihdk_ADR1/ip10xddrdll_ihdk_sch/ip10xddrdll_mcmthdec/schematic 
* CELLLOG ip10xddrdll_ihdk_sch nil ip10xddrdll_mcmthdec symbol 1.2 /nfs/site/disks/ihdk.db.001/sch/ip10xddrdll/P_ihdk_ADR1/ip10xddrdll_ihdk_sch/ip10xddrdll_mcmthdec/symbol 
* TAG: P_ihdk_ADR1 
* COUNTER: 37160 
* Version: 1.2 
* INPUT:  vccxx_lv  picode[0]  picode[1] 
*+ picode[2]  picode[3]  picodeupdate 
* OUTPUT:  pithcode[0]  pithcode[1]  pithcode[2] 
*+ pithcode[3]  pithcode[4]  pithcode[5]  pithcode[6] 
*+ pithcode[7] 
* ----------------------------
*.PININFO  vccxx_lv:I  picode[0]:I  picode[1]:I 
*.PININFO  picode[2]:I  picode[3]:I  picodeupdate:I 
*.PININFO  pithcode[0]:O  pithcode[1]:O  pithcode[2]:O 
*.PININFO  pithcode[3]:O  pithcode[4]:O  pithcode[5]:O  pithcode[6]:O 
*.PININFO  pithcode[7]:O 
* ----------------------------

xna6 thcode_b[1] thcodeb_b[0] thcode[0] vccxx_lv ec0nand02al1n02x5
xna0 picode[1] picode[0] thcodea_b[2] vccxx_lv ec0nand02al1n02x5
xna1 thcodea_b[2] thcode_b[3] thcode[2] vccxx_lv ec0nand02al1n02x5
xna4 thcode_b[5] thcodeb_b[4] thcode[4] vccxx_lv ec0nand02al1n02x5
xna3 picode[2] picode[0] thcodeb_b[4] vccxx_lv ec0nand02al1n02x5
xna2 picode[2] picode[1] thcode_b[5] vccxx_lv ec0nand02al1n02x5
xinv9 picode[3] picode_b[3] vccxx_lv ec0inv000al1n08x5
xlan0[7] picodeupdate pithcode_b[7] pithcode[7] vccxx_lv ec0lsn010al1d05x5
xlan0[6] picodeupdate pithcode_b[6] pithcode[6] vccxx_lv ec0lsn010al1d05x5
xlan0[5] picodeupdate pithcode_b[5] pithcode[5] vccxx_lv ec0lsn010al1d05x5
xlan0[4] picodeupdate pithcode_b[4] pithcode[4] vccxx_lv ec0lsn010al1d05x5
xlan0[3] picodeupdate pithcode_b[3] pithcode[3] vccxx_lv ec0lsn010al1d05x5
xlan0[2] picodeupdate pithcode_b[2] pithcode[2] vccxx_lv ec0lsn010al1d05x5
xlan0[1] picodeupdate pithcode_b[1] pithcode[1] vccxx_lv ec0lsn010al1d05x5
xlan0[0] picodeupdate pithcode_b[0] pithcode[0] vccxx_lv ec0lsn010al1d05x5
xinv5 picode[0] thcodeb_b[6] vccxx_lv ec0inv000al1n02x5
xinv7 vss thcode_b[7] vccxx_lv ec0inv000al1n02x5
xinv6 thcode_b[7] thcode[7] vccxx_lv ec0inv000al1n02x5
xinv8 picode[0] thcodeb_b[0] vccxx_lv ec0inv000al1n02x5
xinv1 thcode_b[1] thcode[1] vccxx_lv ec0inv000al1n02x5
xinv4 thcode_b[5] thcode[5] vccxx_lv ec0inv000al1n02x5
xinv3 thcode_b[3] thcode[3] vccxx_lv ec0inv000al1n02x5
xinv2 picode[2] thcode_b[3] vccxx_lv ec0inv000al1n02x5
xyor[7] picode_b[3] thcode[7] pithcode_b[7] vccxx_lv ec0xnr002an1n03x5
xyor[6] picode_b[3] thcode[6] pithcode_b[6] vccxx_lv ec0xnr002an1n03x5
xyor[5] picode_b[3] thcode[5] pithcode_b[5] vccxx_lv ec0xnr002an1n03x5
xyor[4] picode_b[3] thcode[4] pithcode_b[4] vccxx_lv ec0xnr002an1n03x5
xyor[3] picode_b[3] thcode[3] pithcode_b[3] vccxx_lv ec0xnr002an1n03x5
xyor[2] picode_b[3] thcode[2] pithcode_b[2] vccxx_lv ec0xnr002an1n03x5
xyor[1] picode_b[3] thcode[1] pithcode_b[1] vccxx_lv ec0xnr002an1n03x5
xyor[0] picode_b[3] thcode[0] pithcode_b[0] vccxx_lv ec0xnr002an1n03x5
xno2 thcode_b[5] thcodeb_b[6] thcode[6] vccxx_lv ec0nor002al1n02x5
xno1 picode[2] picode[1] thcode_b[1] vccxx_lv ec0nor002al1n02x5
.ends ip10xddrdll_mcmthdec
** end of subcircuit definition.

** library name: ip10xddrdll_ihdk_sch
** cell name: ip10xddrdll_mcmpredec_x4pi_skl
** view name: schematic
.subckt ip10xddrdll_mcmpredec_x4pi_skl mxbanksel[3] mxbanksel[2] mxbanksel[1] mxbanksel[0] mxlsb picode[5] picode[4] picode[3] picode[2] picode[1] picode[0] pien pienable pithcode[7] pithcode[6] pithcode[5] pithcode[4] pithcode[3] pithcode[2] pithcode[1] pithcode[0] piupdate vccxx_lv
* ----------------------------
* CELLLOG ip10xddrdll_ihdk_sch nil ip10xddrdll_mcmpredec_x4pi_skl schematic 1.6 /nfs/site/disks/ihdk.db.001/sch/ip10xddrdll/P_ihdk_ADR1/ip10xddrdll_ihdk_sch/ip10xddrdll_mcmpredec_x4pi_skl/schematic 
* CELLLOG ip10xddrdll_ihdk_sch nil ip10xddrdll_mcmpredec_x4pi_skl symbol 1.3 /nfs/site/disks/ihdk.db.001/sch/ip10xddrdll/P_ihdk_ADR1/ip10xddrdll_ihdk_sch/ip10xddrdll_mcmpredec_x4pi_skl/symbol 
* TAG: P_ihdk_ADR1 
* COUNTER: 13992 
* Version: 1.3 
* INPUT:  vccxx_lv  pien  picode[0] 
*+ picode[1]  picode[2]  picode[3]  picode[4] 
*+ picode[5]  piupdate 
* OUTPUT:  mxlsb  mxbanksel[0]  mxbanksel[1] 
*+ mxbanksel[2]  mxbanksel[3]  pienable  pithcode[0] 
*+ pithcode[1]  pithcode[2]  pithcode[3]  pithcode[4] 
*+ pithcode[5]  pithcode[6]  pithcode[7] 
* ----------------------------
*.PININFO  vccxx_lv:I  pien:I  picode[0]:I 
*.PININFO  picode[1]:I  picode[2]:I  picode[3]:I  picode[4]:I 
*.PININFO  picode[5]:I  piupdate:I 
*.PININFO  mxlsb:O  mxbanksel[0]:O  mxbanksel[1]:O 
*.PININFO  mxbanksel[2]:O  mxbanksel[3]:O  pienable:O  pithcode[0]:O 
*.PININFO  pithcode[1]:O  pithcode[2]:O  pithcode[3]:O  pithcode[4]:O 
*.PININFO  pithcode[5]:O  pithcode[6]:O  pithcode[7]:O 
* ----------------------------

xbankdec mxbanksel[3] mxbanksel[2] mxbanksel[1] mxbanksel[0] mxlsb picode[5] picode[4] picode[3] piupdate pien pienable vccxx_lv ip10xddrdll_mcmbankdec4
xthdec picode[3] picode[2] picode[1] picode[0] piupdate pithcode[7] pithcode[6] pithcode[5] pithcode[4] pithcode[3] pithcode[2] pithcode[1] pithcode[0] vccxx_lv ip10xddrdll_mcmthdec
.ends ip10xddrdll_mcmpredec_x4pi_skl
** end of subcircuit definition.

** library name: ip10xddrdll_ihdk_sch
** cell name: ip10xddrdll_mcmpidecoder_x4pi
** view name: schematic
.subckt ip10xddrdll_mcmpidecoder_x4pi d0clken d0code[5] d0code[4] d0code[3] d0code[2] d0code[1] d0code[0] d0enable mux0sel[1] mux0sel[0] mux0sel[3] mux0sel[2] mux0sel[5] mux0sel[4] mux0sel[7] mux0sel[6] mux1sel[1] mux1sel[0] mux1sel[3] mux1sel[2] mux1sel[5] mux1sel[4] mux1sel[7] mux1sel[6] mux2sel[1] mux2sel[0] mux2sel[3] mux2sel[2] mux2sel[5] mux2sel[4] mux2sel[7] mux2sel[6] mux3sel[1] mux3sel[0] mux3sel[3] mux3sel[2] mux3sel[5] mux3sel[4] mux3sel[7] mux3sel[6] muxd0sel[1] muxd0sel[0] muxd0sel[3] muxd0sel[2] muxd0sel[5] muxd0sel[4] muxd0sel[7] muxd0sel[6] pi0code[5] pi0code[4] pi0code[3] pi0code[2] pi0code[1] pi0code[0] pi0enable pi0thcode[7] pi0thcode[6] pi0thcode[5] pi0thcode[4] pi0thcode[3] pi0thcode[2] pi0thcode[1] pi0thcode[0] pi1code[5] pi1code[4] pi1code[3] pi1code[2] pi1code[1] pi1code[0] pi1enable pi1thcode[7] pi1thcode[6] pi1thcode[5] pi1thcode[4] pi1thcode[3] pi1thcode[2] pi1thcode[1] pi1thcode[0] pi2code[5] pi2code[4] pi2code[3] pi2code[2] pi2code[1] pi2code[0] pi2enable pi2thcode[7]
+pi2thcode[6] pi2thcode[5] pi2thcode[4] pi2thcode[3] pi2thcode[2] pi2thcode[1] pi2thcode[0] pi3code[5] pi3code[4] pi3code[3] pi3code[2] pi3code[1] pi3code[0] pi3enable pi3thcode[7] pi3thcode[6] pi3thcode[5] pi3thcode[4] pi3thcode[3] pi3thcode[2] pi3thcode[1] pi3thcode[0] pid0thcode[7] pid0thcode[6] pid0thcode[5] pid0thcode[4] pid0thcode[3] pid0thcode[2] pid0thcode[1] pid0thcode[0] pienable[0] pienable[1] pienable[2] pienable[3] piupdateqnnnh[3] piupdateqnnnh[2] piupdateqnnnh[1] vccxx_lv
* ----------------------------
* CELLLOG ip10xddrdll_ihdk_sch nil ip10xddrdll_mcmpidecoder_x4pi schematic 1.7 /nfs/site/disks/ihdk.db.001/sch/ip10xddrdll/P_ihdk_ADR1/ip10xddrdll_ihdk_sch/ip10xddrdll_mcmpidecoder_x4pi/schematic 