** SRCSTATUS: PACKAGE=Production,RUN_MODE=Flat,ERROR_COUNT=0,WARNING_COUNT=1,WAIVERS_COUNT=0,USERID=cvphan,DATE_RUN=Aug 27 19:34:43 2014,SETUP_VER=DTS_14ww29 3,SRC_VER=p14ww33,SIM_VER=p1274 0_14ww31 5,COLL_VER=p1274 0_14ww32 2
** SRCWAIVERS: NONE
** generated for: hspiceD
** generated on: Sep  3 15:07:13 2014
** design library name: ip10xddrdll_ihdk_sch
** design cell name: ip10xddrdll_mcsdl2pi
** design view name: schematic
.global vss

************** Start Of Includes ******************
*******************************************************
* /p/hdk/cad/process/p1274.0_sim/p1274.0_14ww35.2/erc/erc_global_corners_file.hsp:tttt
*******************************************************
 
 
************** End Of Includes ******************
** library name: e8libana
** cell name: e8xltp420tn2000ps1unx
** view name: schematic
.subckt e8xltp420tn2000ps1unx b d g s
* ----------------------------
* CELLLOG e8libana nil e8xltp420tn2000ps1unx schematic Unmanaged /nfs/site/disks/hdk.cad.1/linux_2.6.16_x86-64/p1274/process/p1274.0_collateral/p1274.0_14ww35.1/e8libana/e8xltp420tn2000ps1unx/schematic 
* CELLLOG e8libana nil e8xltp420tn2000ps1unx symbol Unmanaged /nfs/site/disks/hdk.cad.1/linux_2.6.16_x86-64/p1274/process/p1274.0_collateral/p1274.0_14ww35.1/e8libana/e8xltp420tn2000ps1unx/symbol 
* TAG: p1274.0_14ww35.1 
* COUNTER: 13627 
* Version: Unmanaged 
* INOUT:  d  b  s 
* INPUT:  g 
* ----------------------------
*.PININFO  d:B  b:B  s:B 
*.PININFO  g:I 
* ----------------------------

mqn3 d g s b psvt l=20e-9 w=136e-9 m=1
mqn2 d g s b psvt l=20e-9 w=136e-9 m=1
.ends e8xltp420tn2000ps1unx
** end of subcircuit definition.

** library name: e8libana
** cell name: e8xltp220tn2000ns1unx
** view name: schematic
.subckt e8xltp220tn2000ns1unx d g s
* ----------------------------
* CELLLOG e8libana nil e8xltp220tn2000ns1unx schematic Unmanaged /nfs/site/disks/hdk.cad.1/linux_2.6.16_x86-64/p1274/process/p1274.0_collateral/p1274.0_14ww35.1/e8libana/e8xltp220tn2000ns1unx/schematic 
* CELLLOG e8libana nil e8xltp220tn2000ns1unx symbol Unmanaged /nfs/site/disks/hdk.cad.1/linux_2.6.16_x86-64/p1274/process/p1274.0_collateral/p1274.0_14ww35.1/e8libana/e8xltp220tn2000ns1unx/symbol 
* TAG: p1274.0_14ww35.1 
* COUNTER: 14573 
* Version: Unmanaged 
* INOUT:  s  d 
* INPUT:  g 
* ----------------------------
*.PININFO  s:B  d:B 
*.PININFO  g:I 
* ----------------------------

mqn0 d g s vss nsvt l=20e-9 w=68e-9 m=1
mqn1 d g s vss nsvt l=20e-9 w=68e-9 m=1
.ends e8xltp220tn2000ns1unx
** end of subcircuit definition.

** library name: e8libana
** cell name: e8xltp420tn2000ns1unx
** view name: schematic
.subckt e8xltp420tn2000ns1unx d g s
* ----------------------------
* CELLLOG e8libana nil e8xltp420tn2000ns1unx schematic Unmanaged /nfs/site/disks/hdk.cad.1/linux_2.6.16_x86-64/p1274/process/p1274.0_collateral/p1274.0_14ww35.1/e8libana/e8xltp420tn2000ns1unx/schematic 
* CELLLOG e8libana nil e8xltp420tn2000ns1unx symbol Unmanaged /nfs/site/disks/hdk.cad.1/linux_2.6.16_x86-64/p1274/process/p1274.0_collateral/p1274.0_14ww35.1/e8libana/e8xltp420tn2000ns1unx/symbol 
* TAG: p1274.0_14ww35.1 
* COUNTER: 14652 
* Version: Unmanaged 
* INOUT:  s  d 
* INPUT:  g 
* ----------------------------
*.PININFO  s:B  d:B 
*.PININFO  g:I 
* ----------------------------

mqn0 d g s vss nsvt l=20e-9 w=136e-9 m=1
mqn1 d g s vss nsvt l=20e-9 w=136e-9 m=1
.ends e8xltp420tn2000ns1unx
** end of subcircuit definition.

** library name: e8libana
** cell name: e8xltp220tn2000ps1unx
** view name: schematic
.subckt e8xltp220tn2000ps1unx b d g s
* ----------------------------
* CELLLOG e8libana nil e8xltp220tn2000ps1unx schematic Unmanaged /nfs/site/disks/hdk.cad.1/linux_2.6.16_x86-64/p1274/process/p1274.0_collateral/p1274.0_14ww35.1/e8libana/e8xltp220tn2000ps1unx/schematic 
* CELLLOG e8libana nil e8xltp220tn2000ps1unx symbol Unmanaged /nfs/site/disks/hdk.cad.1/linux_2.6.16_x86-64/p1274/process/p1274.0_collateral/p1274.0_14ww35.1/e8libana/e8xltp220tn2000ps1unx/symbol 
* TAG: p1274.0_14ww35.1 
* COUNTER: 14289 
* Version: Unmanaged 
* INOUT:  d  b  s 
* INPUT:  g 
* ----------------------------
*.PININFO  d:B  b:B  s:B 
*.PININFO  g:I 
* ----------------------------

mqn3 d g s b psvt l=20e-9 w=68e-9 m=1
mqn2 d g s b psvt l=20e-9 w=68e-9 m=1
.ends e8xltp220tn2000ps1unx
** end of subcircuit definition.

** library name: ip10xddrdll_ihdk_sch
** cell name: ip10xddrdll_mcmuxcell
** view name: schematic
.subckt ip10xddrdll_mcmuxcell i o_b sel vccxx_lv
* ----------------------------
* CELLLOG ip10xddrdll_ihdk_sch nil ip10xddrdll_mcmuxcell schematic 1.9 /nfs/site/disks/ihdk.db.001/sch/ip10xddrdll/P_ihdk_ADR1/ip10xddrdll_ihdk_sch/ip10xddrdll_mcmuxcell/schematic 
* CELLLOG ip10xddrdll_ihdk_sch nil ip10xddrdll_mcmuxcell symbol 1.3 /nfs/site/disks/ihdk.db.001/sch/ip10xddrdll/P_ihdk_ADR1/ip10xddrdll_ihdk_sch/ip10xddrdll_mcmuxcell/symbol 
* TAG: P_ihdk_ADR1 
* COUNTER: 23579 
* Version: 1.3 
* INOUT:  o_b 
* INPUT:  vccxx_lv  sel  i 
* ----------------------------
*.PININFO  o_b:B 
*.PININFO  vccxx_lv:I  sel:I  i:I 
* ----------------------------

xmup1[1] vccxx_lv pxx i vccxx_lv e8xltp420tn2000ps1unx
xmup1[0] vccxx_lv pxx i vccxx_lv e8xltp420tn2000ps1unx
xmup0[1] vccxx_lv o_b sel_b pxx e8xltp420tn2000ps1unx
xmup0[0] vccxx_lv o_b sel_b pxx e8xltp420tn2000ps1unx
xmiqn1 selbuf sel_b vss e8xltp220tn2000ns1unx
xmiqn0 sel_b sel vss e8xltp220tn2000ns1unx
xmun1[1] nxx i vss e8xltp420tn2000ns1unx
xmun1[0] nxx i vss e8xltp420tn2000ns1unx
xmun0[1] o_b selbuf nxx e8xltp420tn2000ns1unx
xmun0[0] o_b selbuf nxx e8xltp420tn2000ns1unx
xmiqp0 vccxx_lv sel_b sel vccxx_lv e8xltp220tn2000ps1unx
xmiqp1 vccxx_lv selbuf sel_b vccxx_lv e8xltp220tn2000ps1unx
.ends ip10xddrdll_mcmuxcell
** end of subcircuit definition.

** library name: ip10xddrdll_ihdk_sch
** cell name: ip10xddrdll_mcsmuxstage
** view name: schematic
.subckt ip10xddrdll_mcsmuxstage clkmxph_b[1] clkmxph_b[0] clkph0 mx0sel mx1sel vccxx_lv
* ----------------------------
* CELLLOG ip10xddrdll_ihdk_sch nil ip10xddrdll_mcsmuxstage schematic 1.5 /nfs/site/disks/ihdk.db.001/sch/ip10xddrdll/P_ihdk_ADR1/ip10xddrdll_ihdk_sch/ip10xddrdll_mcsmuxstage/schematic 
* CELLLOG ip10xddrdll_ihdk_sch nil ip10xddrdll_mcsmuxstage symbol 1.2 /nfs/site/disks/ihdk.db.001/sch/ip10xddrdll/P_ihdk_ADR1/ip10xddrdll_ihdk_sch/ip10xddrdll_mcsmuxstage/symbol 
* TAG: P_ihdk_ADR1 
* COUNTER: 7066 
* Version: 1.2 
* INOUT:  clkmxph_b[0]  clkmxph_b[1] 
* INPUT:  vccxx_lv  mx0sel  mx1sel 
*+ clkph0 
* ----------------------------
*.PININFO  clkmxph_b[0]:B  clkmxph_b[1]:B 
*.PININFO  vccxx_lv:I  mx0sel:I  mx1sel:I 
*.PININFO  clkph0:I 
* ----------------------------

ximux0 clkph0 clkmxph_b[0] mx0sel vccxx_lv ip10xddrdll_mcmuxcell
xi0 clkph0 clkmxph_b[1] mx1sel vccxx_lv ip10xddrdll_mcmuxcell
.ends ip10xddrdll_mcsmuxstage
** end of subcircuit definition.

** library name: ip10xddrdll_ihdk_sch
** cell name: ip10xddrdll_mcsmux
** view name: schematic
.subckt ip10xddrdll_mcsmux clkmxph0_b[1] clkmxph0_b[0] clkmxph1_b[1] clkmxph1_b[0] clkph[8] clkph[7] clkph[6] clkph[5] clkph[4] clkph[3] clkph[2] clkph[1] clkph[0] mux0sel[8] mux0sel[7] mux0sel[6] mux0sel[5] mux0sel[4] mux0sel[3] mux0sel[2] mux0sel[1] mux0sel[0] mux1sel[8] mux1sel[7] mux1sel[6] mux1sel[5] mux1sel[4] mux1sel[3] mux1sel[2] mux1sel[1] mux1sel[0] vccxx_lv
* ----------------------------
* CELLLOG ip10xddrdll_ihdk_sch nil ip10xddrdll_mcsmux schematic 1.5 /nfs/site/disks/ihdk.db.001/sch/ip10xddrdll/P_ihdk_ADR1/ip10xddrdll_ihdk_sch/ip10xddrdll_mcsmux/schematic 
* CELLLOG ip10xddrdll_ihdk_sch nil ip10xddrdll_mcsmux symbol 1.2 /nfs/site/disks/ihdk.db.001/sch/ip10xddrdll/P_ihdk_ADR1/ip10xddrdll_ihdk_sch/ip10xddrdll_mcsmux/symbol 
* TAG: P_ihdk_ADR1 
* COUNTER: 46530 
* Version: 1.2 
* INPUT:  clkph[0]  clkph[1]  clkph[2] 
*+ clkph[3]  clkph[4]  clkph[5]  clkph[6] 
*+ clkph[7]  clkph[8]  mux0sel[0]  mux0sel[1] 
*+ mux0sel[2]  mux0sel[3]  mux0sel[4]  mux0sel[5] 
*+ mux0sel[6]  mux0sel[7]  mux0sel[8]  mux1sel[0] 
*+ mux1sel[1]  mux1sel[2]  mux1sel[3]  mux1sel[4] 
*+ mux1sel[5]  mux1sel[6]  mux1sel[7]  mux1sel[8] 
*+ vccxx_lv 
* OUTPUT:  clkmxph0_b[0]  clkmxph0_b[1]  clkmxph1_b[0] 
*+ clkmxph1_b[1] 
* ----------------------------
*.PININFO  clkph[0]:I  clkph[1]:I  clkph[2]:I 
*.PININFO  clkph[3]:I  clkph[4]:I  clkph[5]:I  clkph[6]:I 
*.PININFO  clkph[7]:I  clkph[8]:I  mux0sel[0]:I  mux0sel[1]:I 
*.PININFO  mux0sel[2]:I  mux0sel[3]:I  mux0sel[4]:I  mux0sel[5]:I 
*.PININFO  mux0sel[6]:I  mux0sel[7]:I  mux0sel[8]:I  mux1sel[0]:I 
*.PININFO  mux1sel[1]:I  mux1sel[2]:I  mux1sel[3]:I  mux1sel[4]:I 
*.PININFO  mux1sel[5]:I  mux1sel[6]:I  mux1sel[7]:I  mux1sel[8]:I 
*.PININFO  vccxx_lv:I 
*.PININFO  clkmxph0_b[0]:O  clkmxph0_b[1]:O  clkmxph1_b[0]:O 
*.PININFO  clkmxph1_b[1]:O 
* ----------------------------

ximuxcell10 clkmxph1_b[1] clkmxph1_b[0] clkph[5] mux0sel[5] mux1sel[5] vccxx_lv ip10xddrdll_mcsmuxstage
ximuxcell6 clkmxph1_b[1] clkmxph1_b[0] clkph[3] mux0sel[3] mux1sel[3] vccxx_lv ip10xddrdll_mcsmuxstage
ximuxcell2 clkmxph1_b[1] clkmxph1_b[0] clkph[1] mux0sel[1] mux1sel[1] vccxx_lv ip10xddrdll_mcsmuxstage
ximuxcell14 clkmxph1_b[1] clkmxph1_b[0] clkph[7] mux0sel[7] mux1sel[7] vccxx_lv ip10xddrdll_mcsmuxstage
ximuxcell8 clkmxph0_b[1] clkmxph0_b[0] clkph[4] mux0sel[4] mux1sel[4] vccxx_lv ip10xddrdll_mcsmuxstage
ximuxcell4 clkmxph0_b[1] clkmxph0_b[0] clkph[2] mux0sel[2] mux1sel[2] vccxx_lv ip10xddrdll_mcsmuxstage
ximuxcell0 clkmxph0_b[1] clkmxph0_b[0] clkph[0] mux0sel[0] mux1sel[0] vccxx_lv ip10xddrdll_mcsmuxstage
ximuxcell12 clkmxph0_b[1] clkmxph0_b[0] clkph[6] mux0sel[6] mux1sel[6] vccxx_lv ip10xddrdll_mcsmuxstage
ximuxcell16 clkmxph0_b[1] clkmxph0_b[0] clkph[8] mux0sel[8] mux1sel[8] vccxx_lv ip10xddrdll_mcsmuxstage
.ends ip10xddrdll_mcsmux
** end of subcircuit definition.

** library name: ip10xddrdll_ihdk_sch
** cell name: ip10xddrdll_inv_4dgsvtsp24x_nonadt
** view name: schematic
.subckt ip10xddrdll_inv_4dgsvtsp24x_nonadt a o1 vccxx_lv 
* ----------------------------
* CELLLOG ip10xddrdll_ihdk_sch nil ip10xddrdll_inv_4dgsvtsp24x_nonadt schematic 1.6 /nfs/site/disks/ihdk.db.001/sch/ip10xddrdll/P_ihdk_ADR1/ip10xddrdll_ihdk_sch/ip10xddrdll_inv_4dgsvtsp24x_nonadt/schematic 
* CELLLOG ip10xddrdll_ihdk_sch nil ip10xddrdll_inv_4dgsvtsp24x_nonadt symbol 1.2 /nfs/site/disks/ihdk.db.001/sch/ip10xddrdll/P_ihdk_ADR1/ip10xddrdll_ihdk_sch/ip10xddrdll_inv_4dgsvtsp24x_nonadt/symbol 
* TAG: P_ihdk_ADR1 
* COUNTER: 36201 
* Version: 1.2 
* INPUT:  a  vccxx_lv 
* OUTPUT:  o1 
* ----------------------------
*.PININFO  a:I  vccxx_lv:I 
*.PININFO  o1:O 
* ----------------------------

mqpdummy o1 vccxx_lv vccxx_lv vccxx_lv psvt l=20e-9 w=136e-9 ad=5.984e-15 as=5.984e-15 pd=224e-9 ps=224e-9 m=1
mqp1 o1 a vccxx_lv vccxx_lv psvt l=20e-9 w=136e-9 ad=5.984e-15 as=5.984e-15 pd=224e-9 ps=224e-9 m=1
mqn1 o1 a vss vss nsvt l=20e-9 w=136e-9 ad=5.984e-15 as=5.984e-15 pd=224e-9 ps=224e-9 m=1
mqn1dum o1 vss vss vss nsvt l=20e-9 w=136e-9 ad=5.984e-15 as=5.984e-15 pd=224e-9 ps=224e-9 m=1
.ends ip10xddrdll_inv_4dgsvtsp24x_nonadt
** end of subcircuit definition.

** library name: ip10xddrdll_ihdk_sch
** cell name: ip10xddrdll_inv_2dgsvtsp24x_nonadt
** view name: schematic
.subckt ip10xddrdll_inv_2dgsvtsp24x_nonadt a o1 vccxx_lv 
* ----------------------------
* CELLLOG ip10xddrdll_ihdk_sch nil ip10xddrdll_inv_2dgsvtsp24x_nonadt schematic 1.6 /nfs/site/disks/ihdk.db.001/sch/ip10xddrdll/P_ihdk_ADR1/ip10xddrdll_ihdk_sch/ip10xddrdll_inv_2dgsvtsp24x_nonadt/schematic 
* CELLLOG ip10xddrdll_ihdk_sch nil ip10xddrdll_inv_2dgsvtsp24x_nonadt symbol 1.2 /nfs/site/disks/ihdk.db.001/sch/ip10xddrdll/P_ihdk_ADR1/ip10xddrdll_ihdk_sch/ip10xddrdll_inv_2dgsvtsp24x_nonadt/symbol 
* TAG: P_ihdk_ADR1 
* COUNTER: 35384 
* Version: 1.2 
* INPUT:  a  vccxx_lv 
* OUTPUT:  o1 
* ----------------------------
*.PININFO  a:I  vccxx_lv:I 
*.PININFO  o1:O 
* ----------------------------

mqp1 o1 a vccxx_lv vccxx_lv psvt l=20e-9 w=68e-9 m=1
mqpdummy o1 vccxx_lv vccxx_lv vccxx_lv psvt l=20e-9 w=68e-9 ad=2.992e-15 as=2.992e-15 pd=156e-9 ps=156e-9 m=1
mqn1 o1 a vss vss nsvt l=20e-9 w=68e-9 m=1
mqn1dum o1 vss vss vss nsvt l=20e-9 w=68e-9 ad=2.992e-15 as=2.992e-15 pd=156e-9 ps=156e-9 m=1
.ends ip10xddrdll_inv_2dgsvtsp24x_nonadt
** end of subcircuit definition.

** library name: ip10xddrdll_ihdk_sch
** cell name: ip10xddrdll_cnor2_4dgnomsp24x_nonadt
** view name: schematic
.subckt ip10xddrdll_cnor2_4dgnomsp24x_nonadt clk clkout enb vccxx_lv 
* ----------------------------
* CELLLOG ip10xddrdll_ihdk_sch nil ip10xddrdll_cnor2_4dgnomsp24x_nonadt schematic 1.6 /nfs/site/disks/ihdk.db.001/sch/ip10xddrdll/P_ihdk_ADR1/ip10xddrdll_ihdk_sch/ip10xddrdll_cnor2_4dgnomsp24x_nonadt/schematic 
* CELLLOG ip10xddrdll_ihdk_sch nil ip10xddrdll_cnor2_4dgnomsp24x_nonadt symbol 1.2 /nfs/site/disks/ihdk.db.001/sch/ip10xddrdll/P_ihdk_ADR1/ip10xddrdll_ihdk_sch/ip10xddrdll_cnor2_4dgnomsp24x_nonadt/symbol 
* TAG: P_ihdk_ADR1 
* COUNTER: 47785 
* Version: 1.2 
* INPUT:  clk  enb  vccxx_lv 
* OUTPUT:  clkout 
* ----------------------------
*.PININFO  clk:I  enb:I  vccxx_lv:I 
*.PININFO  clkout:O 
* ----------------------------

mqn2dum vss vss vss vss n l=20e-9 w=136e-9 ad=5.984e-15 as=5.984e-15 pd=224e-9 ps=224e-9 m=4
mqn0 clkout clk vss vss n l=20e-9 w=136e-9 ad=2.312e-15 as=5.984e-15 pd=34e-9 ps=224e-9 m=2
mqn1 clkout enb vss vss n l=20e-9 w=136e-9 ad=5.984e-15 as=5.984e-15 pd=224e-9 ps=224e-9 m=2
mqp1 clkout clk n0 vccxx_lv p l=20e-9 w=136e-9 ad=3.536e-15 as=3.536e-15 pd=97.33333e-9 ps=97.33333e-9 m=4
mqp2 n0 enb vccxx_lv vccxx_lv p l=20e-9 w=136e-9 ad=2.312e-15 as=4.148e-15 pd=34e-9 ps=129e-9 m=4
.ends ip10xddrdll_cnor2_4dgnomsp24x_nonadt
** end of subcircuit definition.

** library name: ip10xddrdll_ihdk_sch
** cell name: ip10xddrdll_buf_4dgnomsp24x_nonadt
** view name: schematic
.subckt ip10xddrdll_buf_4dgnomsp24x_nonadt a o vccxx_lv 
* ----------------------------
* CELLLOG ip10xddrdll_ihdk_sch nil ip10xddrdll_buf_4dgnomsp24x_nonadt schematic 1.5 /nfs/site/disks/ihdk.db.001/sch/ip10xddrdll/P_ihdk_ADR1/ip10xddrdll_ihdk_sch/ip10xddrdll_buf_4dgnomsp24x_nonadt/schematic 
* CELLLOG ip10xddrdll_ihdk_sch nil ip10xddrdll_buf_4dgnomsp24x_nonadt symbol 1.2 /nfs/site/disks/ihdk.db.001/sch/ip10xddrdll/P_ihdk_ADR1/ip10xddrdll_ihdk_sch/ip10xddrdll_buf_4dgnomsp24x_nonadt/symbol 
* TAG: P_ihdk_ADR1 
* COUNTER: 40112 
* Version: 1.2 
* INPUT:  a  vccxx_lv 
* OUTPUT:  o 
* ----------------------------
*.PININFO  a:I  vccxx_lv:I 
*.PININFO  o:O 
* ----------------------------

mqn0dum o vss vss vss n l=20e-9 w=136e-9 ad=5.984e-15 as=5.984e-15 pd=224e-9 ps=224e-9 m=1
mqn1dum n1 vss vss vss n l=20e-9 w=68e-9 ad=2.992e-15 as=2.992e-15 pd=156e-9 ps=156e-9 m=1
mqn1 n1 a vss vss n l=20e-9 w=68e-9 m=1
mqn0 o n1 vss vss n l=20e-9 w=136e-9 ad=5.984e-15 as=5.984e-15 pd=224e-9 ps=224e-9 m=1
mqp1dum n1 vccxx_lv vccxx_lv vccxx_lv p l=20e-9 w=68e-9 ad=2.992e-15 as=2.992e-15 pd=156e-9 ps=156e-9 m=1
mqp0dum o vccxx_lv vccxx_lv vccxx_lv p l=20e-9 w=136e-9 ad=5.984e-15 as=5.984e-15 pd=224e-9 ps=224e-9 m=1
mqp0 o n1 vccxx_lv vccxx_lv p l=20e-9 w=136e-9 ad=5.984e-15 as=5.984e-15 pd=224e-9 ps=224e-9 m=1
mqp1 n1 a vccxx_lv vccxx_lv p l=20e-9 w=68e-9 m=1
.ends ip10xddrdll_buf_4dgnomsp24x_nonadt
** end of subcircuit definition.

** library name: e8libana
** cell name: e8xltc21dtn2000nn1unx
** view name: schematic
.subckt e8xltc21dtn2000nn1unx g1 n1 n3 x
* ----------------------------
* CELLLOG e8libana nil e8xltc21dtn2000nn1unx schematic Unmanaged /nfs/site/disks/hdk.cad.1/linux_2.6.16_x86-64/p1274/process/p1274.0_collateral/p1274.0_14ww35.1/e8libana/e8xltc21dtn2000nn1unx/schematic 
* CELLLOG e8libana nil e8xltc21dtn2000nn1unx symbol Unmanaged /nfs/site/disks/hdk.cad.1/linux_2.6.16_x86-64/p1274/process/p1274.0_collateral/p1274.0_14ww35.1/e8libana/e8xltc21dtn2000nn1unx/symbol 
* TAG: p1274.0_14ww35.1 
* COUNTER: 5234 
* Version: Unmanaged 
* INOUT:  x  n1  n3 
* INPUT:  g1 
* ----------------------------
*.PININFO  x:B  n1:B  n3:B 
*.PININFO  g1:I 
* ----------------------------

mqn1 n1 g1 n3 vss n l=20e-9 w=68e-9 m=1
mqn0 n3 x x vss n l=20e-9 w=68e-9 m=1
.ends e8xltc21dtn2000nn1unx
** end of subcircuit definition.

** library name: e8libana
** cell name: e8xltc21dtn2000pn1unx
** view name: schematic
.subckt e8xltc21dtn2000pn1unx b g1 n1 n3 x
* ----------------------------
* CELLLOG e8libana nil e8xltc21dtn2000pn1unx schematic Unmanaged /nfs/site/disks/hdk.cad.1/linux_2.6.16_x86-64/p1274/process/p1274.0_collateral/p1274.0_14ww35.1/e8libana/e8xltc21dtn2000pn1unx/schematic 
* CELLLOG e8libana nil e8xltc21dtn2000pn1unx symbol Unmanaged /nfs/site/disks/hdk.cad.1/linux_2.6.16_x86-64/p1274/process/p1274.0_collateral/p1274.0_14ww35.1/e8libana/e8xltc21dtn2000pn1unx/symbol 
* TAG: p1274.0_14ww35.1 
* COUNTER: 5685 
* Version: Unmanaged 
* INOUT:  x  n1  n3 
*+ b 
* INPUT:  g1 
* ----------------------------
*.PININFO  x:B  n1:B  n3:B 
*.PININFO  b:B 
*.PININFO  g1:I 
* ----------------------------

mqn1 n3 g1 n1 b p l=20e-9 w=68e-9 m=1
mqn0 x x n3 b p l=20e-9 w=68e-9 m=1
.ends e8xltc21dtn2000pn1unx
** end of subcircuit definition.

** library name: ip10xddrdll_ihdk_sch
** cell name: ip10xddrdll_mcpimixermux
** view name: schematic
.subckt ip10xddrdll_mcpimixermux nctl pctl pin pout vccxx_lv
* ----------------------------
* CELLLOG ip10xddrdll_ihdk_sch nil ip10xddrdll_mcpimixermux schematic 1.11 /nfs/site/disks/ihdk.db.001/sch/ip10xddrdll/P_ihdk_ADR1/ip10xddrdll_ihdk_sch/ip10xddrdll_mcpimixermux/schematic 
* CELLLOG ip10xddrdll_ihdk_sch nil ip10xddrdll_mcpimixermux symbol 1.6 /nfs/site/disks/ihdk.db.001/sch/ip10xddrdll/P_ihdk_ADR1/ip10xddrdll_ihdk_sch/ip10xddrdll_mcpimixermux/symbol 
* TAG: P_ihdk_ADR1 
* COUNTER: 52048 
* Version: 1.6 
* INPUT:  pctl  pin  nctl 
*+ vccxx_lv 
* OUTPUT:  pout 
* ----------------------------
*.PININFO  pctl:I  pin:I  nctl:I 
*.PININFO  vccxx_lv:I 
*.PININFO  pout:O 
* ----------------------------

xqn1 nctl nxx vss vss e8xltc21dtn2000nn1unx
xqn0 pin nxx pout vss e8xltc21dtn2000nn1unx
xqp1 vccxx_lv pin pxx pout vccxx_lv e8xltc21dtn2000pn1unx
xqp0 vccxx_lv pctl pxx vccxx_lv vccxx_lv e8xltc21dtn2000pn1unx
.ends ip10xddrdll_mcpimixermux
** end of subcircuit definition.

** library name: e8libana
** cell name: e8xltp420tn2000nn1unx
** view name: schematic
.subckt e8xltp420tn2000nn1unx d g s
* ----------------------------
* CELLLOG e8libana nil e8xltp420tn2000nn1unx schematic Unmanaged /nfs/site/disks/hdk.cad.1/linux_2.6.16_x86-64/p1274/process/p1274.0_collateral/p1274.0_14ww35.1/e8libana/e8xltp420tn2000nn1unx/schematic 
* CELLLOG e8libana nil e8xltp420tn2000nn1unx symbol Unmanaged /nfs/site/disks/hdk.cad.1/linux_2.6.16_x86-64/p1274/process/p1274.0_collateral/p1274.0_14ww35.1/e8libana/e8xltp420tn2000nn1unx/symbol 
* TAG: p1274.0_14ww35.1 
* COUNTER: 14450 
* Version: Unmanaged 
* INOUT:  s  d 
* INPUT:  g 
* ----------------------------
*.PININFO  s:B  d:B 
*.PININFO  g:I 
* ----------------------------

mqn0 d g s vss n l=20e-9 w=136e-9 m=1
mqn1 d g s vss n l=20e-9 w=136e-9 m=1
.ends e8xltp420tn2000nn1unx
** end of subcircuit definition.

** library name: ip10xddrdll_ihdk_sch
** cell name: ip10xddrdll_mcpassgate
** view name: schematic
.subckt ip10xddrdll_mcpassgate i o s sb vccxx_lv
* ----------------------------
* CELLLOG ip10xddrdll_ihdk_sch nil ip10xddrdll_mcpassgate schematic 1.5 /nfs/site/disks/ihdk.db.001/sch/ip10xddrdll/P_ihdk_ADR1/ip10xddrdll_ihdk_sch/ip10xddrdll_mcpassgate/schematic 
* CELLLOG ip10xddrdll_ihdk_sch nil ip10xddrdll_mcpassgate symbol 1.2 /nfs/site/disks/ihdk.db.001/sch/ip10xddrdll/P_ihdk_ADR1/ip10xddrdll_ihdk_sch/ip10xddrdll_mcpassgate/symbol 
* TAG: P_ihdk_ADR1 
* COUNTER: 17291 
* Version: 1.2 
* INPUT:  vccxx_lv  s  sb 
*+ i 
* OUTPUT:  o 
* ----------------------------
*.PININFO  vccxx_lv:I  s:I  sb:I 
*.PININFO  i:I 
*.PININFO  o:O 
* ----------------------------

xqpsb vccxx_lv o sb i e8xltp420tn2000ps1unx
xqns o s i e8xltp420tn2000nn1unx
.ends ip10xddrdll_mcpassgate
** end of subcircuit definition.

** library name: ip10xddrdll_ihdk_sch
** cell name: ip10xddrdll_inv_4dgnomsp24x_nonadt
** view name: schematic
.subckt ip10xddrdll_inv_4dgnomsp24x_nonadt a o1 vccxx_lv 
* ----------------------------
* CELLLOG ip10xddrdll_ihdk_sch nil ip10xddrdll_inv_4dgnomsp24x_nonadt schematic 1.4 /nfs/site/disks/ihdk.db.001/sch/ip10xddrdll/P_ihdk_ADR1/ip10xddrdll_ihdk_sch/ip10xddrdll_inv_4dgnomsp24x_nonadt/schematic 
* CELLLOG ip10xddrdll_ihdk_sch nil ip10xddrdll_inv_4dgnomsp24x_nonadt symbol 1.2 /nfs/site/disks/ihdk.db.001/sch/ip10xddrdll/P_ihdk_ADR1/ip10xddrdll_ihdk_sch/ip10xddrdll_inv_4dgnomsp24x_nonadt/symbol 
* TAG: P_ihdk_ADR1 
* COUNTER: 34865 
* Version: 1.2 
* INPUT:  a  vccxx_lv 
* OUTPUT:  o1 
* ----------------------------
*.PININFO  a:I  vccxx_lv:I 
*.PININFO  o1:O 
* ----------------------------

mqn1 o1 a vss vss n l=20e-9 w=136e-9 ad=5.984e-15 as=5.984e-15 pd=224e-9 ps=224e-9 m=1
mqn1dum o1 vss vss vss n l=20e-9 w=136e-9 ad=5.984e-15 as=5.984e-15 pd=224e-9 ps=224e-9 m=1
mqpdummy o1 vccxx_lv vccxx_lv vccxx_lv p l=20e-9 w=136e-9 ad=5.984e-15 as=5.984e-15 pd=224e-9 ps=224e-9 m=1
mqp1 o1 a vccxx_lv vccxx_lv p l=20e-9 w=136e-9 ad=5.984e-15 as=5.984e-15 pd=224e-9 ps=224e-9 m=1
.ends ip10xddrdll_inv_4dgnomsp24x_nonadt
** end of subcircuit definition.

** library name: e8libana
** cell name: e8xltp420tn2000pn1unx
** view name: schematic
.subckt e8xltp420tn2000pn1unx b d g s
* ----------------------------
* CELLLOG e8libana nil e8xltp420tn2000pn1unx schematic Unmanaged /nfs/site/disks/hdk.cad.1/linux_2.6.16_x86-64/p1274/process/p1274.0_collateral/p1274.0_14ww35.1/e8libana/e8xltp420tn2000pn1unx/schematic 
* CELLLOG e8libana nil e8xltp420tn2000pn1unx symbol Unmanaged /nfs/site/disks/hdk.cad.1/linux_2.6.16_x86-64/p1274/process/p1274.0_collateral/p1274.0_14ww35.1/e8libana/e8xltp420tn2000pn1unx/symbol 
* TAG: p1274.0_14ww35.1 
* COUNTER: 13404 
* Version: Unmanaged 
* INOUT:  d  b  s 
* INPUT:  g 
* ----------------------------
*.PININFO  d:B  b:B  s:B 
*.PININFO  g:I 
* ----------------------------

mqn3 d g s b p l=20e-9 w=136e-9 m=1
mqn2 d g s b p l=20e-9 w=136e-9 m=1
.ends e8xltp420tn2000pn1unx
** end of subcircuit definition.

** library name: ip10xddrdll_ihdk_sch
** cell name: ip10xddrdll_mcpimixer
** view name: schematic
.subckt ip10xddrdll_mcpimixer picb[2] picb[1] picb[0] piclkout piclkph0 piclkph1 pimxsel[7] pimxsel[6] pimxsel[5] pimxsel[4] pimxsel[3] pimxsel[2] pimxsel[1] pimxsel[0] vccxx_lv 
* ----------------------------
* CELLLOG ip10xddrdll_ihdk_sch nil ip10xddrdll_mcpimixer schematic 1.15 /nfs/site/disks/ihdk.db.001/sch/ip10xddrdll/P_ihdk_ADR1/ip10xddrdll_ihdk_sch/ip10xddrdll_mcpimixer/schematic 
* CELLLOG ip10xddrdll_ihdk_sch nil ip10xddrdll_mcpimixer symbol 1.1 /nfs/site/disks/ihdk.db.001/sch/ip10xddrdll/P_ihdk_ADR1/ip10xddrdll_ihdk_sch/ip10xddrdll_mcpimixer/symbol 
* TAG: P_ihdk_ADR1 
* COUNTER: 735706 
* Version: 1.1 
* INPUT:  vccxx_lv  pimxsel[0]  pimxsel[1] 
*+ pimxsel[2]  pimxsel[3]  pimxsel[4]  pimxsel[5] 
*+ pimxsel[6]  pimxsel[7]  picb[0]  picb[1] 
*+ picb[2]  piclkph0  piclkph1 
* OUTPUT:  piclkout 
* ----------------------------
*.PININFO  vccxx_lv:I  pimxsel[0]:I  pimxsel[1]:I 
*.PININFO  pimxsel[2]:I  pimxsel[3]:I  pimxsel[4]:I  pimxsel[5]:I 
*.PININFO  pimxsel[6]:I  pimxsel[7]:I  picb[0]:I  picb[1]:I 
*.PININFO  picb[2]:I  piclkph0:I  piclkph1:I 
*.PININFO  piclkout:O 
* ----------------------------

xiph0mxsel2 pimxselb[2] pimxsel[2] piclkph0 pimixerout vccxx_lv ip10xddrdll_mcpimixermux
xiph1mxsel7 pimxsel[7] pimxselb[7] piclkph1 pimixerout vccxx_lv ip10xddrdll_mcpimixermux
xiph0mxsel7 pimxselb[7] pimxsel[7] piclkph0 pimixerout vccxx_lv ip10xddrdll_mcpimixermux
xiph1mxsel2 pimxsel[2] pimxselb[2] piclkph1 pimixerout vccxx_lv ip10xddrdll_mcpimixermux
xiph1mxsel6 pimxsel[6] pimxselb[6] piclkph1 pimixerout vccxx_lv ip10xddrdll_mcpimixermux
xiph0mxsel3 pimxselb[3] pimxsel[3] piclkph0 pimixerout vccxx_lv ip10xddrdll_mcpimixermux
xiph0mxsel5 pimxselb[5] pimxsel[5] piclkph0 pimixerout vccxx_lv ip10xddrdll_mcpimixermux
xiph0mxsel6 pimxselb[6] pimxsel[6] piclkph0 pimixerout vccxx_lv ip10xddrdll_mcpimixermux
xiph1mxsel4 pimxsel[4] pimxselb[4] piclkph1 pimixerout vccxx_lv ip10xddrdll_mcpimixermux
xiph1mxsel3 pimxsel[3] pimxselb[3] piclkph1 pimixerout vccxx_lv ip10xddrdll_mcpimixermux
xiph0mxsel4 pimxselb[4] pimxsel[4] piclkph0 pimixerout vccxx_lv ip10xddrdll_mcpimixermux
xiph1mxsel0 pimxsel[0] pimxselb[0] piclkph1 pimixerout vccxx_lv ip10xddrdll_mcpimixermux
xiph1mxsel1 pimxsel[1] pimxselb[1] piclkph1 pimixerout vccxx_lv ip10xddrdll_mcpimixermux
xiph0mxsel1 pimxselb[1] pimxsel[1] piclkph0 pimixerout vccxx_lv ip10xddrdll_mcpimixermux
xiph0mxsel0 pimxselb[0] pimxsel[0] piclkph0 pimixerout vccxx_lv ip10xddrdll_mcpimixermux
xiph1mxsel5 pimxsel[5] pimxselb[5] piclkph1 pimixerout vccxx_lv ip10xddrdll_mcpimixermux
xinv015 pimxsel[7] pimxselb[7] vccxx_lv ip10xddrdll_inv_2dgsvtsp24x_nonadt
xinv016 pimxsel[5] pimxselb[5] vccxx_lv ip10xddrdll_inv_2dgsvtsp24x_nonadt
xinv012 pimxsel[3] pimxselb[3] vccxx_lv ip10xddrdll_inv_2dgsvtsp24x_nonadt
xinv014 pimxsel[6] pimxselb[6] vccxx_lv ip10xddrdll_inv_2dgsvtsp24x_nonadt
xinv011 pimxsel[1] pimxselb[1] vccxx_lv ip10xddrdll_inv_2dgsvtsp24x_nonadt
xinv017 pimxsel[4] pimxselb[4] vccxx_lv ip10xddrdll_inv_2dgsvtsp24x_nonadt
xinv09 pimxsel[0] pimxselb[0] vccxx_lv ip10xddrdll_inv_2dgsvtsp24x_nonadt
xinv013 pimxsel[2] pimxselb[2] vccxx_lv ip10xddrdll_inv_2dgsvtsp24x_nonadt
xg4[1] piclkph1 n4 picb[1] picb_b[1] vccxx_lv ip10xddrdll_mcpassgate
xg4[0] piclkph1 n4 picb[1] picb_b[1] vccxx_lv ip10xddrdll_mcpassgate
xpg2[3] piclkph0 n0 picb[2] picb_b[2] vccxx_lv ip10xddrdll_mcpassgate
xpg2[2] piclkph0 n0 picb[2] picb_b[2] vccxx_lv ip10xddrdll_mcpassgate
xpg2[1] piclkph0 n0 picb[2] picb_b[2] vccxx_lv ip10xddrdll_mcpassgate
xpg2[0] piclkph0 n0 picb[2] picb_b[2] vccxx_lv ip10xddrdll_mcpassgate
xpg0 piclkph0 n2 picb[0] picb_b[0] vccxx_lv ip10xddrdll_mcpassgate
xg6[3] pimixerout n6 picb[2] picb_b[2] vccxx_lv ip10xddrdll_mcpassgate
xg6[2] pimixerout n6 picb[2] picb_b[2] vccxx_lv ip10xddrdll_mcpassgate
xg6[1] pimixerout n6 picb[2] picb_b[2] vccxx_lv ip10xddrdll_mcpassgate
xg6[0] pimixerout n6 picb[2] picb_b[2] vccxx_lv ip10xddrdll_mcpassgate
xg5[1] pimixerout n7 picb[1] picb_b[1] vccxx_lv ip10xddrdll_mcpassgate
xg5[0] pimixerout n7 picb[1] picb_b[1] vccxx_lv ip10xddrdll_mcpassgate
xg3[3] piclkph1 n3 picb[2] picb_b[2] vccxx_lv ip10xddrdll_mcpassgate
xg3[2] piclkph1 n3 picb[2] picb_b[2] vccxx_lv ip10xddrdll_mcpassgate
xg3[1] piclkph1 n3 picb[2] picb_b[2] vccxx_lv ip10xddrdll_mcpassgate
xg3[0] piclkph1 n3 picb[2] picb_b[2] vccxx_lv ip10xddrdll_mcpassgate
xpg1[1] piclkph0 n1 picb[1] picb_b[1] vccxx_lv ip10xddrdll_mcpassgate
xpg1[0] piclkph0 n1 picb[1] picb_b[1] vccxx_lv ip10xddrdll_mcpassgate
xgn5 piclkph1 n5 picb[0] picb_b[0] vccxx_lv ip10xddrdll_mcpassgate
xg8 pimixerout n8 picb[0] picb_b[0] vccxx_lv ip10xddrdll_mcpassgate
xinvpicb[2] picb[2] picb_b[2] vccxx_lv ip10xddrdll_inv_4dgsvtsp24x_nonadt
xinvpicb[1] picb[1] picb_b[1] vccxx_lv ip10xddrdll_inv_4dgsvtsp24x_nonadt
xinvpicb[0] picb[0] picb_b[0] vccxx_lv ip10xddrdll_inv_4dgsvtsp24x_nonadt
xinv010 pimixerout piclkout vccxx_lv ip10xddrdll_inv_4dgnomsp24x_nonadt
xqp1[3] vccxx_lv vccxx_lv n2 vccxx_lv e8xltp420tn2000pn1unx
xqp1[2] vccxx_lv vccxx_lv n2 vccxx_lv e8xltp420tn2000pn1unx
xqp1[1] vccxx_lv vccxx_lv n2 vccxx_lv e8xltp420tn2000pn1unx
xqp1[0] vccxx_lv vccxx_lv n2 vccxx_lv e8xltp420tn2000pn1unx
xqp0[7] vccxx_lv vccxx_lv n1 vccxx_lv e8xltp420tn2000pn1unx
xqp0[6] vccxx_lv vccxx_lv n1 vccxx_lv e8xltp420tn2000pn1unx
xqp0[5] vccxx_lv vccxx_lv n1 vccxx_lv e8xltp420tn2000pn1unx
xqp0[4] vccxx_lv vccxx_lv n1 vccxx_lv e8xltp420tn2000pn1unx
xqp0[3] vccxx_lv vccxx_lv n1 vccxx_lv e8xltp420tn2000pn1unx
xqp0[2] vccxx_lv vccxx_lv n1 vccxx_lv e8xltp420tn2000pn1unx
xqp0[1] vccxx_lv vccxx_lv n1 vccxx_lv e8xltp420tn2000pn1unx
xqp0[0] vccxx_lv vccxx_lv n1 vccxx_lv e8xltp420tn2000pn1unx
xqp15[15] vccxx_lv vccxx_lv n0 vccxx_lv e8xltp420tn2000pn1unx
xqp15[14] vccxx_lv vccxx_lv n0 vccxx_lv e8xltp420tn2000pn1unx
xqp15[13] vccxx_lv vccxx_lv n0 vccxx_lv e8xltp420tn2000pn1unx
xqp15[12] vccxx_lv vccxx_lv n0 vccxx_lv e8xltp420tn2000pn1unx
xqp15[11] vccxx_lv vccxx_lv n0 vccxx_lv e8xltp420tn2000pn1unx
xqp15[10] vccxx_lv vccxx_lv n0 vccxx_lv e8xltp420tn2000pn1unx
xqp15[9] vccxx_lv vccxx_lv n0 vccxx_lv e8xltp420tn2000pn1unx
xqp15[8] vccxx_lv vccxx_lv n0 vccxx_lv e8xltp420tn2000pn1unx
xqp15[7] vccxx_lv vccxx_lv n0 vccxx_lv e8xltp420tn2000pn1unx
xqp15[6] vccxx_lv vccxx_lv n0 vccxx_lv e8xltp420tn2000pn1unx
xqp15[5] vccxx_lv vccxx_lv n0 vccxx_lv e8xltp420tn2000pn1unx
xqp15[4] vccxx_lv vccxx_lv n0 vccxx_lv e8xltp420tn2000pn1unx
xqp15[3] vccxx_lv vccxx_lv n0 vccxx_lv e8xltp420tn2000pn1unx
xqp15[2] vccxx_lv vccxx_lv n0 vccxx_lv e8xltp420tn2000pn1unx
xqp15[1] vccxx_lv vccxx_lv n0 vccxx_lv e8xltp420tn2000pn1unx
xqp15[0] vccxx_lv vccxx_lv n0 vccxx_lv e8xltp420tn2000pn1unx
xqp7[3] vccxx_lv vccxx_lv n8 vccxx_lv e8xltp420tn2000pn1unx
xqp7[2] vccxx_lv vccxx_lv n8 vccxx_lv e8xltp420tn2000pn1unx
xqp7[1] vccxx_lv vccxx_lv n8 vccxx_lv e8xltp420tn2000pn1unx
xqp7[0] vccxx_lv vccxx_lv n8 vccxx_lv e8xltp420tn2000pn1unx
xqp2[15] vccxx_lv vccxx_lv n3 vccxx_lv e8xltp420tn2000pn1unx
xqp2[14] vccxx_lv vccxx_lv n3 vccxx_lv e8xltp420tn2000pn1unx
xqp2[13] vccxx_lv vccxx_lv n3 vccxx_lv e8xltp420tn2000pn1unx
xqp2[12] vccxx_lv vccxx_lv n3 vccxx_lv e8xltp420tn2000pn1unx
xqp2[11] vccxx_lv vccxx_lv n3 vccxx_lv e8xltp420tn2000pn1unx
xqp2[10] vccxx_lv vccxx_lv n3 vccxx_lv e8xltp420tn2000pn1unx
xqp2[9] vccxx_lv vccxx_lv n3 vccxx_lv e8xltp420tn2000pn1unx
xqp2[8] vccxx_lv vccxx_lv n3 vccxx_lv e8xltp420tn2000pn1unx
xqp2[7] vccxx_lv vccxx_lv n3 vccxx_lv e8xltp420tn2000pn1unx
xqp2[6] vccxx_lv vccxx_lv n3 vccxx_lv e8xltp420tn2000pn1unx
xqp2[5] vccxx_lv vccxx_lv n3 vccxx_lv e8xltp420tn2000pn1unx
xqp2[4] vccxx_lv vccxx_lv n3 vccxx_lv e8xltp420tn2000pn1unx
xqp2[3] vccxx_lv vccxx_lv n3 vccxx_lv e8xltp420tn2000pn1unx
xqp2[2] vccxx_lv vccxx_lv n3 vccxx_lv e8xltp420tn2000pn1unx
xqp2[1] vccxx_lv vccxx_lv n3 vccxx_lv e8xltp420tn2000pn1unx
xqp2[0] vccxx_lv vccxx_lv n3 vccxx_lv e8xltp420tn2000pn1unx
xqp3[7] vccxx_lv vccxx_lv n4 vccxx_lv e8xltp420tn2000pn1unx